model.glm
///////////////////////////////////////////////////////
//
// Simplified Virtual Islanding simulation model
// Copyright (C) 2016, Stanford University
// Author: aivanova@slac.stanford.edu
//
///////////////////////////////////////////////////////

#define STARTTIME=2018-01-01 00:00:00 PST
#define STOPTIME=2018-01-01 01:00:00 PST

#define WEATHER=WA-Yakima.tmy3
#define TIMEZONE=US/CA/Los Angeles

#define LOADS=on
//#define XLOAD=yes
//#define PVAREA
//#define PVPROB

#define MYSQL_AMI==off
#define SOLAR=off


//#define VOLTDUMP
//#define CURRDUMP

#ifdef TIMEZONE
clock {
	timezone ${TIMEZONE};
#ifdef STARTTIME
	starttime ${STARTTIME};
#endif
#ifdef STOPTIME
	stoptime ${STOPTIME};
#endif
}
#else
#error No timezone specified
#endif // TIMEZONE


///////////////////////////////////////////////////////
//
// WEATHER
//
///////////////////////////////////////////////////////
#ifexist data/${WEATHER}
module climate;
object climate {
        name weather;
        tmyfile "data/${WEATHER}";
        interpolate QUADRATIC;
}
#else
#error No weather specified.
#endif // exist WEATHER

///////////////////////////////////////////////////////
//
// POWER SYSTEM MODEL
//
///////////////////////////////////////////////////////
module powerflow {
	solver_method NR;
	line_capacitance true;
	convergence_error_handling IGNORE;
}

module generators; // ENABLES SOLAR
module tape;

#ifdef VOLTDUMP
object voltdump {
	filename ${VOLTDUMP};
	group "nodevolts";
	mode polar;
}
#endif // VOLTDUMP

#ifdef CURRDUMP
object currdump {
	filename ${CURRDUMP};
	mode rect;
}
#endif // CURRDUMP

//
// Powerflow component configurations
//


/// OVERHEAD LINE CONDUCTORS
object overhead_line_conductor {
	name olc_default;	//336,400 26/7 ACSR
	geometric_mean_radius 0.0244;
	resistance 0.306;
	diameter 0.721;
}

object line_spacing {
	name ls_default;
	distance_AB 0.5;
	distance_AC 1.0;
	distance_BC 0.5;
}

object line_configuration {
	name lc_default;
	conductor_A olc_default;
	conductor_B olc_default;
	conductor_C olc_default;
	conductor_N olc_default;
	spacing ls_default;
}
/// UNDERGROUND LINE CONDUCTORS
//object underground_line_conductor {
//	name ulc_default;	//1/0 AA, CN
//	outer_diameter 1.06;
//	conductor_gmr 0.0111;
//	conductor_diameter 0.368;
//	conductor_resistance 0.97;
//	neutral_gmr 0.00208;
//	neutral_resistance 14.8722;
//	neutral_diameter 0.0640837;
//	neutral_strands 16.0;
//}

//Transformer configurations
object transformer_configuration {
	name tc_default;
	connect_type DELTA_GWYE;
	install_type PADMOUNT;
	power_rating 5.0 MVA;
	primary_voltage 12.47 kV;
	secondary_voltage 2401.7771;
	resistance 0.01;
	reactance 0.08;
}

// Regulator configs
//object regulator_configuration {
//	name rc_default;
//	connect_type WYE_WYE;
//	band_center 2400.000;
//	band_width 40.0;
//	time_delay 30.0;
//	raise_taps 16;
//	lower_taps 16;
//	current_transducer_ratio 700;
//	power_transducer_ratio 20;
//	compensator_r_setting_A 3.0;
//	compensator_x_setting_A 7.5;
//	CT_phase "A";
//	PT_phase "A";
//	regulation 0.10;
//	Control OUTPUT_VOLTAGE;
//	Type A;
//	tap_pos_A 0;
//	tap_pos_B 0;
//	tap_pos_C 0;
//}


//
// Power system topology
//

//Transformers 
object transformer {
	name tf_main;
	phases ABCN;
	from node_001;
	to node_002;
	configuration tc_default;
}

//Pure nodes
object node {
	name node_001;
	phases ABCN;
	bustype SWING;
	nominal_voltage 12.47 kV;
}

object node {
	name node_002;
	phases ABCN;
	nominal_voltage 2401.7771;
}

object node {
	name node_101;
	phases ABCN;
	nominal_voltage 2401.7771;
}

object node {
	name node_102;
	phases ABCN;
	nominal_voltage 2401.7771;
}

object node {
	name node_103;
	phases ABCN;
	nominal_voltage 2401.7771;
}

object node {
	name node_201;
	phases ABCN;
	nominal_voltage 2401.7771;
}

object node {
	name node_202;
	phases ABCN;
	nominal_voltage 2401.7771;
}

object node {
	name node_203;
	phases ABCN;
	nominal_voltage 2401.7771;
}

object node {
	name node_301;
	phases ABCN;
	nominal_voltage 2401.7771;
}

object node {
	name node_302;
	phases ABCN;
	nominal_voltage 2401.7771;
}

object node {
	name node_303;
	phases ABCN;
	nominal_voltage 2401.7771;
}

//Switches 
object switch {
	name sw_101;
	from node_002; 
	to node_101;
	phases ABCN;
	status CLOSED;
}

object switch {
	name sw_201;
	from node_002; 
	to node_201;
	phases ABCN;
	status CLOSED;
}

object switch {
	name sw_301;
	from node_002; 
	to node_301;
	phases ABCN;
	status CLOSED;
}
object switch {
	name sw_103;
	from node_103; 
	to node_203;
	phases ABCN;
	status CLOSED;
}

object switch {
	name sw_303;
	from node_303; 
	to node_203;
	phases ABCN;
	status OPEN;
}

//Pure spot loads

object load {
	name load_101;
	groupid nodevolts;
	phases ABCN;
	constant_power_A 40000.000000+20000.000000j;
	nominal_voltage 2401.7771;
}

object load {
	name load_102;
	groupid nodevolts;
	phases ABCN;
	constant_power_B 20000.000000+10000.000000j;
	nominal_voltage 2401.7771;
}

object load {
	name load_103;
	groupid nodevolts;
	phases ABCN;
	constant_power_C 40000.000000+20000.000000j;
	nominal_voltage 2401.7771;
}

object load {
	name load_201;
	groupid nodevolts;
	phases ABCN;
	constant_current_C -0.557814+9.293330j;
	nominal_voltage 2401.7771;
}

object load {
	name load_202;
	groupid nodevolts;
	phases ABCN;
	constant_impedance_C 115.370667+57.685333j;
	nominal_voltage 2401.7771;
}

object load {
	name load_203;
	groupid nodevolts;
	phases ABCN;
	constant_power_A 20000.000000+10000.000000j;
	nominal_voltage 2401.7771;
}

object load {
	name load_301;
	groupid nodevolts;
	phases ABCN;
	constant_power_A 40000.000000+20000.000000j;
	nominal_voltage 2401.7771;
}

object load {
	name load_302;
	groupid nodevolts;
	phases ABCN;
	constant_power_A 40000.000000+20000.000000j;
	nominal_voltage 2401.7771;
}

object load {
	name load_303;
	groupid nodevolts;
	phases ABCN;
	constant_power_A 40000.000000+20000.000000j;
	nominal_voltage 2401.7771;
}

// Network Lines 

object overhead_line {
	name line_node101_node102;
	phases ABCN;
	from node_101;
	to node_102;
	length 175.00;
	configuration lc_default;
}

object overhead_line {
	name line_node102_node103;
	phases ABCN;
	from node_102;
	to node_103;
	length 175.00;
	configuration lc_default;
}

object overhead_line {
	name line_node201_node202;
	phases ABCN;
	from node_201;
	to node_202;
	length 175.00;
	configuration lc_default;
}

object overhead_line {
	name line_node202_node203;
	phases ABCN;
	from node_202;
	to node_203;
	length 175.00;
	configuration lc_default;
}


object overhead_line {
	name line_node301_node302;
	phases ABCN;
	from node_301;
	to node_302;
	length 175.00;
	configuration lc_default;
}


object overhead_line {
	name line_node302_node303;
	phases ABCN;
	from node_302;
	to node_303;
	length 175.00;
	configuration lc_default;
}


//Lines between nodes and spot loads 
object overhead_line {
	name line_node101_load101;
	phases ABCN;
	from node_101;
	to load_101;
	length 175.00;
	configuration lc_default;
}

object overhead_line {
	name line_node102_load102;
	phases ABCN;
	from node_102;
	to load_102;
	length 175.00;
	configuration lc_default;
}

object overhead_line {
	name line_node103_load103;
	phases ABCN;
	from node_103;
	to load_103;
	length 175.00;
	configuration lc_default;
}

object overhead_line {
	name line_node201_load201;
	phases ABCN;
	from node_201;
	to load_201;
	length 175.00;
	configuration lc_default;
}

object overhead_line {
	name line_node202_load202;
	phases ABCN;
	from node_202;
	to load_202;
	length 175.00;
	configuration lc_default;
}

object overhead_line {
	name line_node203_load203;
	phases ABCN;
	from node_203;
	to load_203;
	length 175.00;
	configuration lc_default;
}

object overhead_line {
	name line_node301_load301;
	phases ABCN;
	from node_301;
	to load_301;
	length 175.00;
	configuration lc_default;
}

object overhead_line {
	name line_node302_load302;
	phases ABCN;
	from node_302;
	to load_302;
	length 175.00;
	configuration lc_default;
}

object overhead_line {
	name line_node303_load303;
	phases ABCN;
	from node_303;
	to load_303;
	length 175.00;
	configuration lc_default;
}

//Capacitors

//object capacitor {
//	name cap_83;
//	parent load_83;
//	phases ABC;
//	phases_connected ABC;
//	nominal_voltage 2401.7771;
//	control MANUAL;
//	capacitor_A 200000.0000;
//	capacitor_B 200000.0000;
//	capacitor_C 200000.0000;
//	switchA OPEN;
//	switchB OPEN;
//	switchC OPEN;
//};

#include "loads.glm"




//
// Switch coordinator
//
//object switch_coordinator {
//	name scheme_1;
//	connect sw13to152;
//	connect sw18to135;
//	connect sw54to94;
//	connect sw60to160;
//	connect sw61to6101;
//	connect sw97to197;
//	connect sw151to300;
//	connect sw15001to149;
//	connect sw250to251;
//	connect sw300to350;
//	connect sw450to451;
//	connect sw95to195;
//	object recorder {
//		file "switch_output.csv";
//		property "armed,status";
//		interval -1;
//	};

//}